Version 4
SHEET 1 1088 680
WIRE -176 -144 -416 -144
WIRE 144 -144 -96 -144
WIRE 608 -144 144 -144
WIRE 816 -144 608 -144
WIRE 144 -80 144 -144
WIRE 816 -32 816 -144
WIRE 144 64 144 0
WIRE -416 80 -416 -144
WIRE 608 144 608 -144
WIRE 144 208 144 144
WIRE 384 208 144 208
WIRE 560 208 448 208
WIRE 816 240 816 48
WIRE 144 256 144 208
WIRE -416 416 -416 160
WIRE 144 416 144 320
WIRE 144 416 -416 416
WIRE 608 416 608 208
WIRE 608 416 144 416
WIRE 816 416 816 304
WIRE 816 416 608 416
WIRE 144 464 144 416
FLAG 144 464 0
SYMBOL cap 128 256 R0
SYMATTR InstName C1
SYMATTR Value 220n
SYMBOL res 128 -96 R0
SYMATTR InstName VARIABLE_RESISTOR
SYMATTR Value 100k
SYMBOL Misc\\DIAC 448 176 R90
WINDOW 0 0 32 VBottom 2
WINDOW 3 64 32 VTop 2
SYMATTR InstName U1
SYMATTR Value DB3TG
SYMBOL voltage -416 64 R0
WINDOW 123 0 0 Left 0
WINDOW 39 0 0 Left 0
SYMATTR InstName V1
SYMATTR Value SINE(0 280 60)
SYMBOL res 128 48 R0
SYMATTR InstName R2
SYMATTR Value 10K
SYMBOL Misc\\TRIAC 576 144 R0
SYMATTR InstName U2
SYMATTR Value BTA12-600B
SYMBOL res 800 -48 R0
SYMATTR InstName R3
SYMATTR Value 330
SYMBOL cap 800 240 R0
SYMATTR InstName C2
SYMATTR Value 47n
SYMBOL res -80 -160 R90
WINDOW 0 0 56 VBottom 2
WINDOW 3 32 56 VTop 2
SYMATTR InstName R1
SYMATTR Value 300
TEXT 536 480 Left 2 !.include lib\\st_diacs.lib
TEXT 536 512 Left 2 !.include lib\\st_standard_snubberless_triacs.lib
TEXT -448 536 Left 2 !.tran 0.1
